Version 4
SHEET 1 1444 1144
WIRE 256 128 -288 128
WIRE 256 160 -288 160
WIRE -272 240 -288 240
WIRE 208 240 -16 240
WIRE -272 272 -272 240
WIRE -176 272 -272 272
WIRE 208 272 208 240
WIRE 272 272 208 272
WIRE -144 320 -288 320
WIRE -16 336 -16 272
WIRE 240 336 144 336
WIRE -144 368 -144 320
WIRE -16 368 -144 368
WIRE 240 384 240 336
WIRE 272 384 240 384
WIRE -288 448 -288 400
WIRE 112 448 -288 448
WIRE 144 464 144 368
WIRE 320 464 304 464
WIRE -176 480 -176 304
WIRE -176 480 -288 480
WIRE 80 480 -176 480
WIRE 112 496 112 448
WIRE 144 496 112 496
WIRE 80 528 80 480
WIRE 144 528 80 528
WIRE -208 560 -288 560
WIRE -16 560 -16 400
WIRE -16 560 -208 560
WIRE 320 560 320 464
WIRE 320 560 272 560
WIRE 272 592 272 560
WIRE 512 592 432 592
WIRE 720 608 624 608
WIRE 272 624 224 624
WIRE 512 624 512 592
WIRE 624 624 624 608
WIRE 624 624 512 624
WIRE -240 640 -288 640
WIRE 224 640 224 624
WIRE 224 640 -240 640
WIRE 432 704 432 624
WIRE 608 704 432 704
WIRE 800 704 768 704
WIRE -256 720 -288 720
WIRE -224 720 -256 720
WIRE 304 736 304 496
WIRE 432 736 304 736
WIRE 608 736 592 736
WIRE 800 752 800 704
WIRE 928 752 800 752
WIRE -208 768 -208 560
WIRE 432 768 -208 768
WIRE -224 800 -224 720
WIRE 432 800 -224 800
WIRE 768 864 768 736
WIRE 768 864 576 864
WIRE 592 896 592 768
WIRE 768 896 752 896
WIRE -240 928 -240 640
WIRE 592 928 -240 928
WIRE 768 928 768 896
WIRE 848 928 768 928
WIRE 576 960 576 864
WIRE 592 960 576 960
WIRE 752 1024 752 928
WIRE 944 1024 912 1024
WIRE -256 1056 -256 720
WIRE 752 1056 -256 1056
WIRE 944 1088 944 1024
WIRE 1040 1088 944 1088
FLAG -288 128 ENABLE
IOPIN -288 128 In
FLAG -288 160 X0
IOPIN -288 160 In
FLAG -288 240 X1
IOPIN -288 240 In
FLAG -288 320 X2
IOPIN -288 320 In
FLAG -288 400 X3
IOPIN -288 400 In
FLAG -288 480 X4
IOPIN -288 480 In
FLAG -288 560 X5
IOPIN -288 560 In
FLAG -288 640 X6
IOPIN -288 640 In
FLAG -288 720 X7
IOPIN -288 720 In
FLAG 448 144 Y0
IOPIN 448 144 Out
FLAG 464 256 Y1
IOPIN 464 256 Out
FLAG 464 368 Y2
IOPIN 464 368 Out
FLAG 912 592 Y3
IOPIN 912 592 Out
FLAG 1120 736 Y4
IOPIN 1120 736 Out
FLAG 1040 912 Y5
IOPIN 1040 912 Out
FLAG 1232 1072 Y6
IOPIN 1232 1072 Out
FLAG 272 240 ENABLE
IOPIN 272 240 In
FLAG 272 352 ENABLE
IOPIN 272 352 In
FLAG 720 576 ENABLE
IOPIN 720 576 In
FLAG 928 720 ENABLE
IOPIN 928 720 In
FLAG 848 896 ENABLE
IOPIN 848 896 In
FLAG 1040 1056 ENABLE
IOPIN 1040 1056 In
FLAG 336 80 VDD
IOPIN 336 80 In
FLAG 352 192 VDD
IOPIN 352 192 In
FLAG 352 304 VDD
IOPIN 352 304 In
FLAG 800 528 VDD
IOPIN 800 528 In
FLAG 1008 672 VDD
IOPIN 1008 672 In
FLAG 928 848 VDD
IOPIN 928 848 In
FLAG 1120 1008 VDD
IOPIN 1120 1008 In
FLAG 816 976 VDD
IOPIN 816 976 In
FLAG 656 848 VDD
IOPIN 656 848 In
FLAG 496 688 VDD
IOPIN 496 688 In
FLAG 336 544 VDD
IOPIN 336 544 In
FLAG 208 416 VDD
IOPIN 208 416 In
FLAG 48 288 VDD
IOPIN 48 288 In
FLAG -112 192 VDD
IOPIN -112 192 In
FLAG 672 656 VDD
IOPIN 672 656 In
SYMBOL AND 336 144 R0
SYMATTR InstName X1
SYMBOL SUM -96 256 R0
SYMATTR InstName X2
SYMBOL AND 352 256 R0
SYMATTR InstName X3
SYMBOL SUM 64 352 R0
SYMATTR InstName X4
SYMBOL AND 352 368 R0
SYMATTR InstName X5
SYMBOL SUM 224 480 R0
SYMATTR InstName X6
SYMBOL SUM 352 608 R0
SYMATTR InstName X7
SYMBOL AND 800 592 R0
SYMATTR InstName X8
SYMBOL SUM 512 752 R0
SYMATTR InstName X9
SYMBOL AND 1008 736 R0
SYMATTR InstName X10
SYMBOL SUM 672 912 R0
SYMATTR InstName X11
SYMBOL SUM 832 1040 R0
SYMATTR InstName X12
SYMBOL AND 928 912 R0
SYMATTR InstName X13
SYMBOL AND 1120 1072 R0
SYMATTR InstName X14
SYMBOL SUM 688 720 R0
SYMATTR InstName X15
