Version 4
SHEET 1 880 680
SYMBOL AND 336 144 R0
SYMATTR InstName X1
