Version 4
SHEET 1 1376 728
WIRE -400 -512 -448 -512
WIRE -320 -416 -368 -416
WIRE -240 -304 -288 -304
WIRE -160 -208 -208 -208
WIRE 80 -96 -128 -96
WIRE 256 -48 160 -48
WIRE 160 32 160 -48
WIRE 80 80 80 -96
WIRE 1248 80 336 80
WIRE 1312 80 1248 80
WIRE -160 112 -160 -208
WIRE 80 112 -160 112
WIRE 1104 112 336 112
WIRE 1184 112 1104 112
WIRE -240 144 -240 -304
WIRE 80 144 -240 144
WIRE 976 144 336 144
WIRE 1040 144 976 144
WIRE -320 176 -320 -416
WIRE 80 176 -320 176
WIRE 832 176 336 176
WIRE 912 176 832 176
WIRE -400 208 -400 -512
WIRE 80 208 -400 208
WIRE 688 208 336 208
WIRE 768 208 688 208
WIRE 80 240 -192 240
WIRE 544 240 336 240
WIRE 624 240 544 240
WIRE 80 272 -272 272
WIRE 384 272 336 272
WIRE 464 272 384 272
WIRE 80 304 -352 304
WIRE 80 336 -448 336
WIRE -192 384 -192 240
WIRE -272 464 -272 272
WIRE -352 528 -352 304
WIRE -448 592 -448 336
FLAG 256 32 0
FLAG -128 -16 0
FLAG -208 -128 0
FLAG -288 -224 0
FLAG -368 -336 0
FLAG -448 -432 0
FLAG -192 464 0
FLAG -272 544 0
FLAG -352 608 0
FLAG -448 672 0
FLAG 1312 144 0
FLAG 1248 160 0
FLAG 1184 176 0
FLAG 1104 192 0
FLAG 1040 208 0
FLAG 976 224 0
FLAG 912 240 0
FLAG 832 256 0
FLAG 768 272 0
FLAG 688 288 0
FLAG 624 304 0
FLAG 544 320 0
FLAG 464 336 0
FLAG 384 352 0
SYMBOL BCDCONVERTER 176 144 R0
SYMATTR InstName X1
SYMBOL voltage 256 -64 R0
WINDOW 123 0 0 Left 0
WINDOW 39 0 0 Left 0
SYMATTR InstName V1
SYMATTR Value 1
SYMBOL voltage -128 -112 R0
WINDOW 123 0 0 Left 0
WINDOW 39 0 0 Left 0
SYMATTR InstName V2
SYMATTR Value 1
SYMBOL voltage -208 -224 R0
WINDOW 123 0 0 Left 0
WINDOW 39 0 0 Left 0
WINDOW 3 24 96 Left 1
SYMATTR Value PULSE(0 1 4n 10p 10p 4n 8n)
SYMATTR InstName V3
SYMBOL voltage -288 -320 R0
WINDOW 123 0 0 Left 0
WINDOW 39 0 0 Left 0
WINDOW 3 24 96 Left 1
SYMATTR Value PULSE(0 1 8n 10p 10p 8n 16n)
SYMATTR InstName V4
SYMBOL voltage -368 -432 R0
WINDOW 123 0 0 Left 0
WINDOW 39 0 0 Left 0
WINDOW 3 24 96 Left 1
SYMATTR Value PULSE(0 1 16n 10p 10p 16n 32n)
SYMATTR InstName V5
SYMBOL voltage -448 -528 R0
WINDOW 123 0 0 Left 0
WINDOW 39 0 0 Left 0
WINDOW 3 24 96 Left 1
SYMATTR Value PULSE(0 1 32n 10p 10p 32n 64n)
SYMATTR InstName V6
SYMBOL voltage -192 368 R0
WINDOW 123 0 0 Left 0
WINDOW 39 0 0 Left 0
WINDOW 3 24 96 Left 1
SYMATTR Value PULSE(0 1 64n 10p 10p 64n 128n)
SYMATTR InstName V7
SYMBOL voltage -272 448 R0
WINDOW 123 0 0 Left 0
WINDOW 39 0 0 Left 0
WINDOW 3 24 96 Left 1
SYMATTR Value PULSE(0 1 128n 10p 10p 128n 256n)
SYMATTR InstName V8
SYMBOL voltage -352 512 R0
WINDOW 123 0 0 Left 0
WINDOW 39 0 0 Left 0
WINDOW 3 24 96 Left 1
SYMATTR Value PULSE(0 1 256n 10p 10p 256n 512n)
SYMATTR InstName V9
SYMBOL voltage -448 576 R0
WINDOW 123 0 0 Left 0
WINDOW 39 0 0 Left 0
WINDOW 3 24 96 Left 1
SYMATTR Value PULSE(0 1 512n 10p 10p 512n 1024n)
SYMATTR InstName V10
SYMBOL res 368 256 R0
SYMATTR InstName R1
SYMATTR Value 100k
SYMBOL cap 448 272 R0
SYMATTR InstName C1
SYMATTR Value 100f
SYMBOL res 528 224 R0
SYMATTR InstName R2
SYMATTR Value 100k
SYMBOL cap 608 240 R0
SYMATTR InstName C2
SYMATTR Value 100f
SYMBOL res 672 192 R0
SYMATTR InstName R3
SYMATTR Value 100k
SYMBOL cap 752 208 R0
SYMATTR InstName C3
SYMATTR Value 100f
SYMBOL res 816 160 R0
SYMATTR InstName R4
SYMATTR Value 100k
SYMBOL cap 896 176 R0
SYMATTR InstName C4
SYMATTR Value 100f
SYMBOL res 960 128 R0
SYMATTR InstName R5
SYMATTR Value 100k
SYMBOL cap 1024 144 R0
SYMATTR InstName C5
SYMATTR Value 100f
SYMBOL res 1088 96 R0
SYMATTR InstName R6
SYMATTR Value 100k
SYMBOL cap 1168 112 R0
SYMATTR InstName C6
SYMATTR Value 100f
SYMBOL res 1232 64 R0
SYMATTR InstName R7
SYMATTR Value 100k
SYMBOL cap 1296 80 R0
SYMATTR InstName C7
SYMATTR Value 100f
TEXT 168 -232 Left 2 !.tran 0 768n 0
TEXT -216 -96 Left 2 ;X0
TEXT -296 -192 Left 2 ;X1
TEXT -384 -288 Left 2 ;X2
TEXT -456 -400 Left 2 ;X3
TEXT -200 504 Left 2 ;X4
TEXT -240 568 Left 2 ;X5
TEXT -296 640 Left 2 ;X6
TEXT -464 712 Left 2 ;X7
TEXT 1240 56 Left 2 ;Y0
TEXT 1168 96 Left 2 ;Y1
TEXT 1016 128 Left 2 ;Y2
TEXT 904 160 Left 2 ;Y3
TEXT 776 192 Left 2 ;Y4
TEXT 632 224 Left 2 ;Y5
TEXT 472 256 Left 2 ;Y6
