Version 4
SHEET 1 1532 772
WIRE 656 -192 576 -192
WIRE -112 -64 -352 -64
WIRE 256 48 176 48
WIRE 320 48 256 48
WIRE 400 48 320 48
WIRE 432 48 400 48
WIRE 576 48 576 -192
WIRE 576 48 432 48
WIRE 656 48 576 48
WIRE 768 48 656 48
WIRE 928 48 768 48
WIRE 1120 48 928 48
WIRE -112 96 -112 -64
WIRE -64 96 -112 96
WIRE 96 96 -64 96
WIRE -288 112 -352 112
WIRE 352 112 288 112
WIRE 432 112 432 48
WIRE -288 128 -288 112
WIRE -16 128 -288 128
WIRE 96 128 -16 128
WIRE 352 160 352 112
WIRE 256 192 256 48
WIRE 256 192 176 192
WIRE -64 240 -64 96
WIRE 96 240 -64 240
WIRE 656 240 656 48
WIRE 352 256 352 192
WIRE 352 256 288 256
WIRE 64 272 -352 272
WIRE 96 272 64 272
WIRE 528 288 528 176
WIRE 576 288 528 288
WIRE 1408 304 752 304
WIRE 576 320 288 320
WIRE 256 352 256 192
WIRE 256 352 176 352
WIRE 928 352 928 48
WIRE 768 368 768 48
WIRE 1120 368 1120 48
WIRE 752 384 752 304
WIRE 752 384 736 384
WIRE -16 400 -16 128
WIRE 96 400 -16 400
WIRE 736 400 736 384
WIRE 288 416 288 320
WIRE 64 432 64 272
WIRE 96 432 64 432
WIRE 1408 432 1216 432
WIRE 320 496 320 48
WIRE 320 496 176 496
WIRE 352 496 320 496
WIRE 352 512 352 496
WIRE -64 544 -64 240
WIRE 96 544 -64 544
WIRE -16 576 -16 400
WIRE 96 576 -16 576
WIRE 848 576 848 432
WIRE 848 576 448 576
WIRE 272 592 256 592
WIRE 64 608 64 432
WIRE 256 608 256 592
WIRE 256 608 64 608
WIRE 368 656 176 656
WIRE 400 656 400 48
WIRE 400 656 368 656
WIRE 368 672 368 656
WIRE -64 704 -64 544
WIRE 96 704 -64 704
WIRE -16 736 -16 576
WIRE 96 736 -16 736
WIRE 1040 736 1040 448
WIRE 1040 736 480 736
WIRE 64 768 64 608
WIRE 288 768 288 752
WIRE 288 768 64 768
FLAG 1408 304 POUT
IOPIN 1408 304 Out
FLAG 1408 432 SOUT
IOPIN 1408 432 Out
FLAG 656 -192 VDD
IOPIN 656 -192 In
FLAG -352 -64 AIN
IOPIN -352 -64 In
FLAG -352 112 BIN
IOPIN -352 112 In
FLAG -352 272 P0IN
IOPIN -352 272 In
SYMBOL AND 176 112 R0
SYMATTR InstName X1
SYMBOL AND 176 256 R0
SYMATTR InstName X2
SYMBOL AND 176 416 R0
SYMATTR InstName X3
SYMBOL OR 176 560 R0
SYMATTR InstName X4
SYMBOL OR 352 576 R0
SYMATTR InstName X5
SYMBOL AND 176 720 R0
SYMATTR InstName X6
SYMBOL AND 368 736 R0
SYMATTR InstName X7
SYMBOL OR 432 176 R0
SYMATTR InstName X8
SYMBOL AND 928 416 R0
SYMATTR InstName X10
SYMBOL OR 1120 432 R0
SYMATTR InstName X11
SYMBOL OR 656 304 R0
SYMATTR InstName X9
SYMBOL NOT 800 400 R0
SYMATTR InstName X12
