Version 4
SHEET 1 880 680
WIRE 272 16 224 16
WIRE -80 64 -160 64
WIRE 32 64 -32 64
WIRE 160 64 80 64
WIRE 224 112 224 16
WIRE 448 112 320 112
WIRE 544 112 448 112
WIRE 160 160 160 64
WIRE 320 160 320 112
WIRE 32 192 32 64
WIRE 160 192 32 192
WIRE -80 224 -80 64
WIRE 160 224 -80 224
WIRE 320 240 320 192
WIRE 448 240 320 240
WIRE 544 240 448 240
FLAG 80 144 0
FLAG -32 144 0
FLAG -160 144 0
FLAG 448 192 0
FLAG 544 176 0
FLAG 448 320 0
FLAG 544 304 0
FLAG 272 96 0
SYMBOL SUM 240 176 R0
SYMATTR InstName X1
SYMBOL voltage 80 48 R0
WINDOW 123 0 0 Left 0
WINDOW 39 0 0 Left 0
SYMATTR InstName V1
SYMATTR Value PULSE(0 1 10n 10p 10p 4n 8n)
SYMBOL voltage 272 0 R0
WINDOW 123 0 0 Left 0
WINDOW 39 0 0 Left 0
SYMATTR InstName V2
SYMATTR Value 1
SYMBOL voltage -32 48 R0
WINDOW 123 0 0 Left 0
WINDOW 39 0 0 Left 0
SYMATTR InstName V3
SYMATTR Value PULSE(0 1 10n 10p 10p 8n 16n)
SYMBOL voltage -160 48 R0
WINDOW 123 0 0 Left 0
WINDOW 39 0 0 Left 0
SYMATTR InstName V4
SYMATTR Value PULSE(0 1 10n 10p 10p 16n 32n)
SYMBOL res 432 224 R0
SYMATTR InstName R1
SYMATTR Value 100k
SYMBOL res 432 96 R0
SYMATTR InstName R2
SYMATTR Value 100k
SYMBOL cap 528 112 R0
SYMATTR InstName C1
SYMATTR Value 100f
SYMBOL cap 528 240 R0
SYMATTR InstName C2
SYMATTR Value 100f
TEXT 248 -120 Left 2 !.tran 0 42n 0
