Version 4
SHEET 1 880 680
WIRE 352 -48 240 -48
WIRE 160 48 -16 48
WIRE -16 80 -16 48
WIRE 240 112 240 -48
WIRE 160 160 160 48
WIRE 576 176 336 176
WIRE 672 176 576 176
WIRE 160 192 -16 192
WIRE -16 224 -16 192
FLAG -16 160 0
FLAG -16 304 0
FLAG 352 32 0
FLAG 576 256 0
FLAG 672 240 0
SYMBOL NOR 240 176 R0
SYMATTR InstName X1
SYMBOL voltage 352 -64 R0
WINDOW 123 0 0 Left 0
WINDOW 39 0 0 Left 0
SYMATTR InstName V1
SYMATTR Value 1
SYMBOL voltage -16 64 R0
WINDOW 123 0 0 Left 0
WINDOW 39 0 0 Left 0
WINDOW 3 -43 103 Left 1
SYMATTR InstName V2
SYMATTR Value PULSE(0 1 1n 10p 10p 20n 40n)
SYMBOL voltage -16 208 R0
WINDOW 123 0 0 Left 0
WINDOW 39 0 0 Left 0
WINDOW 3 24 96 Left 1
SYMATTR InstName V3
SYMATTR Value PULSE(0 1 1n 10p 10p 40n 80n)
SYMBOL res 560 160 R0
SYMATTR InstName R1
SYMATTR Value 100k
SYMBOL cap 656 176 R0
SYMATTR InstName C1
SYMATTR Value 100f
TEXT 224 -192 Left 2 !.tran 0 160n 0 1p
TEXT 232 -232 Left 2 !.include 90nm_bulk.txt
