Version 4
SHEET 1 880 680
WIRE 288 64 208 64
WIRE 208 176 208 64
WIRE 176 208 0 208
WIRE 464 208 288 208
WIRE 544 208 464 208
FLAG 0 288 0
FLAG 288 144 0
FLAG 464 288 0
FLAG 544 272 0
SYMBOL NOT 240 208 R0
SYMATTR InstName X1
SYMBOL voltage 288 48 R0
WINDOW 123 0 0 Left 0
WINDOW 39 0 0 Left 0
SYMATTR InstName V1
SYMATTR Value 1
SYMBOL voltage 0 192 R0
WINDOW 123 0 0 Left 0
WINDOW 39 0 0 Left 0
SYMATTR InstName V2
SYMATTR Value PULSE(0 1 1n 10p 10p 20n 40n)
SYMBOL res 448 192 R0
SYMATTR InstName R1
SYMATTR Value 100k
SYMBOL cap 528 208 R0
SYMATTR InstName C1
SYMATTR Value 100f
TEXT 8 -16 Left 2 !.tran 0 160n 0 1p
